@<TRIPOS>MOLECULE
p0g
    53    55     1
SMALL       
USER_CHARGES
****        
lysozyme, beta-2 adrenergic receptor; chain: a; fragment: unp residues 29-348 with a deletion of residues 235 synonym: endolysin, lysis protein, muramidase, beta-2 adrenor beta-2 adrenoceptor; ec: 3.2.1.17; engineered: yes; mutation: yes; mol_id: 2; molecule: camelid antibody fragment; chain: b; engineered: yes
@<TRIPOS>ATOM
    1 HAA1   -5.3779  -10.6178  -54.4077 H      1 P0G1401    0.0000
    2 CAA    -6.4163  -10.9286  -54.3067 C.3    1 P0G1401    0.1435
    3 HAA2   -6.7900  -10.5353  -53.3645 H      1 P0G1401    0.0000
    4 HAA3   -6.9917  -10.4295  -55.1232 H      1 P0G1401    0.0000
    5 CAT    -6.5473  -12.4400  -54.3702 C.ar   1 P0G1401   -0.1435
    6 CAI    -5.3837  -13.1767  -54.4315 C.ar   1 P0G1401   -0.1500
    7 HAI1   -4.4211  -12.6827  -54.4865 H      1 P0G1401    0.1500
    8 CAG    -5.4072  -14.5810  -54.4413 C.ar   1 P0G1401   -0.1500
    9 HAG1   -4.5044  -15.1434  -54.5030 H      1 P0G1401    0.1500
   10 CAH    -6.6383  -15.2255  -54.3028 C.ar   1 P0G1401   -0.1500
   11 HAH1   -6.6525  -16.3092  -54.2622 H      1 P0G1401    0.1500
   12 CAJ    -7.8019  -14.4980  -54.2282 C.ar   1 P0G1401   -0.1500
   13 HAJ1   -8.7416  -15.0403  -54.1015 H      1 P0G1401    0.1500
   14 CAV    -7.8128  -13.0965  -54.2920 C.ar   1 P0G1401   -0.1435
   15 CAO    -9.1381  -12.3425  -54.2217 C.3    1 P0G1401    0.1435
   16 HAO1   -9.5942  -12.5675  -53.2410 H      1 P0G1401    0.0000
   17 HAO2   -8.9302  -11.2794  -54.1575 H      1 P0G1401    0.0000
   18 CBA   -10.2011  -12.5405  -55.3445 C.3    1 P0G1401    0.2700
   19 CAB   -11.2734  -11.4413  -55.2010 C.3    1 P0G1401    0.0000
   20 HAB1  -11.7922  -11.4888  -54.2413 H      1 P0G1401    0.0000
   21 HAB2  -12.0145  -11.5111  -56.0042 H      1 P0G1401    0.0000
   22 HAB3  -10.8044  -10.4243  -55.2690 H      1 P0G1401    0.0000
   23 CAC   -10.9751  -13.8850  -55.1588 C.3    1 P0G1401    0.0000
   24 HAC1  -10.3587  -14.7584  -55.4543 H      1 P0G1401    0.0000
   25 HAC2  -11.8495  -13.9079  -55.8115 H      1 P0G1401    0.0000
   26 HAC3  -11.3138  -14.0196  -54.1439 H      1 P0G1401    0.0000
   27 NAP    -9.6308  -12.6127  -56.7165 N.3    1 P0G1401   -0.9000
   28 HAP1   -8.8743  -13.2757  -56.7452 H      1 P0G1401    0.3600
   29 CAN    -9.2105  -11.3279  -57.2904 C.3    1 P0G1401    0.2700
   30 HAN1  -10.0705  -10.7295  -57.5087 H      1 P0G1401    0.0000
   31 HAN2   -8.5727  -10.7623  -56.6018 H      1 P0G1401    0.0000
   32 CAZ    -8.4257  -11.5194  -58.6376 C.3    1 P0G1401    0.4235
   33 HAZ1   -8.2286  -10.5124  -59.0725 H      1 P0G1401    0.0000
   34 OAF    -9.2800  -12.1693  -59.6012 O.3    1 P0G1401   -0.6800
   35 HAF1  -10.1278  -11.7260  -59.5873 H      1 P0G1401    0.4000
   36 CAW    -7.1122  -12.2302  -58.4809 C.ar   1 P0G1401   -0.1435
   37 CAL    -7.0126  -13.6068  -58.6980 C.ar   1 P0G1401   -0.1500
   38 HAL1   -7.8868  -14.1817  -59.0051 H      1 P0G1401    0.1500
   39 CAK    -5.8052  -14.2925  -58.5252 C.ar   1 P0G1401   -0.1500
   40 HAK1   -5.7561  -15.3539  -58.6961 H      1 P0G1401    0.1500
   41 CAU    -4.6624  -13.5911  -58.1243 C.ar   1 P0G1401    0.0825
   42 OAE    -3.4735  -14.2531  -57.9192 O.3    1 P0G1401   -0.5325
   43 HAE1   -3.6091  -15.1834  -58.1014 H      1 P0G1401    0.4500
   44 CAX    -4.7395  -12.2120  -57.9123 C.ar   1 P0G1401    0.1170
   45 CAY    -5.9441  -11.5277  -58.0994 C.ar   1 P0G1401    0.0825
   46 OAR    -6.0749  -10.1567  -57.7965 O.3    1 P0G1401   -0.3625
   47 CAM    -4.8279   -9.4436  -57.8284 C.3    1 P0G1401    0.3410
   48 HAM1   -4.6269   -9.1692  -58.8897 H      1 P0G1401    0.0000
   49 HAM2   -4.9627   -8.5385  -57.2625 H      1 P0G1401    0.0000
   50 CAS    -3.5914  -10.1467  -57.3052 C.2    1 P0G1401    0.5690
   51 OAD    -2.6374   -9.5134  -56.8404 O.2    1 P0G1401   -0.5700
   52 NAQ    -3.5816  -11.5113  -57.4513 N.am   1 P0G1401   -0.5470
   53 HAQ1   -2.7680  -12.0329  -57.2325 H      1 P0G1401    0.3700
@<TRIPOS>BOND
    1     1     2 1 
    2     2     3 1 
    3     2     4 1 
    4     2     5 1 
    5     5     6 1 
    6     5    14 2 
    7     6     7 1 
    8     6     8 2 
    9     8     9 1 
   10     8    10 1 
   11    10    11 1 
   12    10    12 2 
   13    12    13 1 
   14    12    14 1 
   15    14    15 1 
   16    15    16 1 
   17    15    17 1 
   18    15    18 1 
   19    18    19 1 
   20    18    23 1 
   21    18    27 1 
   22    19    20 1 
   23    19    21 1 
   24    19    22 1 
   25    23    24 1 
   26    23    25 1 
   27    23    26 1 
   28    27    28 1 
   29    27    29 1 
   30    29    30 1 
   31    29    31 1 
   32    29    32 1 
   33    32    33 1 
   34    32    34 1 
   35    32    36 1 
   36    34    35 1 
   37    36    37 2 
   38    36    45 1 
   39    37    38 1 
   40    37    39 1 
   41    39    40 1 
   42    39    41 2 
   43    41    42 1 
   44    41    44 1 
   45    42    43 1 
   46    44    45 2 
   47    44    52 1 
   48    45    46 1 
   49    46    47 1 
   50    47    48 1 
   51    47    49 1 
   52    47    50 1 
   53    50    51 2 
   54    50    52 1 
   55    52    53 1 
@<TRIPOS>SUBSTRUCTURE
    1   P0G1401      1
@<TRIPOS>CRYSIN
   49.6700   66.4800  303.1000   90.0000   90.0000   90.0000    19     0

